Circuit: * C:\Users\cassi\Documents\pp\AGSC\Op Amp CDU.asc

Direct Newton iteration for .op point succeeded.

Date: Fri Mar 20 19:56:39 2020
Total elapsed time: 7.433 seconds.

tnom = 27
temp = 27
method = modified trap
totiter = 1070860
traniter = 1070836
tranpoints = 354710
accept = 253329
rejected = 101381
matrix size = 37
fillins = 18
solver = Normal
Matrix Compiler1: 3.36 KB object code size  0.6/0.4/[0.2]
Matrix Compiler2: off  [0.3]/0.4/0.3

